% Physics
PHYSICAL_PROBLEM= ELASTICITY
MATH_PROBLEM= DIRECT
DYNAMIC_ANALYSIS= NO
%
% Optimization
TOPOLOGY_OPTIMIZATION= YES
FEA_FILENAME= element_properties.dat
TOPOL_OPTIM_FILTER_RADIUS= __RADIUS__
TOPOL_OPTIM_FILTER_KERNEL= ( __FILTER__ )
TOPOL_OPTIM_KERNEL_PARAM= __BETA__
TOPOL_OPTIM_PROJECTION_TYPE= NO_PROJECTION
TOPOL_OPTIM_PROJECTION_PARAM= 0.0
TOPOL_OPTIM_SIMP_EXPONENT= 3.0
TOPOL_OPTIM_OUTFILE= grad.dat
%
OBJECTIVE_FUNCTION= REFERENCE_NODE
REFERENCE_NODE= 120
REFERENCE_NODE_DISPLACEMENT= (0.0, 0.0)
REFERENCE_NODE_PENALTY= 1.0
DESIGN_VARIABLE_FEA= YOUNG_MODULUS
%
GEO_MARKER= ( clamped, load, free )
GEO_DESCRIPTION= AIRFOIL
GEO_MODE= GRADIENT
%
% Shape parameters
FFD_TOLERANCE= 1E-10
FFD_ITERATIONS= 500
FFD_DEFINITION= (MAIN_BOX, -0.1,-0.1,0, 120.1,-0.1,0, 120.1,50,0, -0.1,50,0, 0,0,0, 0,0,0, 0,0,0, 0,0,0)
FFD_DEGREE= (8, 1, 0)
FFD_CONTINUITY= NO_DERIVATIVE
DV_KIND= FFD_CONTROL_POINT_2D,FFD_CONTROL_POINT_2D,FFD_CONTROL_POINT_2D,FFD_CONTROL_POINT_2D,FFD_CONTROL_POINT_2D,FFD_CONTROL_POINT_2D,FFD_CONTROL_POINT_2D,FFD_CONTROL_POINT_2D,FFD_CONTROL_POINT_2D
DV_MARKER= ( clamped, load, free )
DV_PARAM= (MAIN_BOX,0,1,0,1); (MAIN_BOX,1,1,0,1); (MAIN_BOX,2,1,0,1); (MAIN_BOX,3,1,0,1); (MAIN_BOX,4,1,0,1); (MAIN_BOX,5,1,0,1); (MAIN_BOX,6,1,0,1); (MAIN_BOX,7,1,0,1); (MAIN_BOX,8,1,0,1)
DV_VALUE= 0,0,0,0,0,0,0,0,0
%
DEFORM_LINEAR_SOLVER= FGMRES
DEFORM_LINEAR_SOLVER_PREC= ILU
DEFORM_TOL_FACTOR= 1e-7
DEFORM_LINEAR_ITER= 100
DEFORM_NONLINEAR_ITER= 1
DEFORM_STIFFNESS_TYPE= INVERSE_VOLUME
VISUALIZE_VOLUME_DEF= NO
%
% Numerics
GEOMETRIC_CONDITIONS= SMALL_DEFORMATIONS
FORMULATION_ELASTICITY_2D= PLANE_STRESS
%
% Material properties
MATERIAL_MODEL= LINEAR_ELASTIC
ELASTICITY_MODULUS= 240
POISSON_RATIO= 0.3
MATERIAL_DENSITY= 1000
%
% Boundary conditions
MARKER_CLAMPED= ( clamped )
MARKER_PRESSURE= ( free,0.0 )
MARKER_LOAD= ( load, 1, 1, __LOAD_DIR__, 0)
%
% Linear solver
LINEAR_SOLVER= CONJUGATE_GRADIENT
LINEAR_SOLVER_PREC= ILU
LINEAR_SOLVER_ERROR= 1E-9
LINEAR_SOLVER_ITER= 1000
DISCADJ_LIN_SOLVER= CONJUGATE_GRADIENT
DISCADJ_LIN_PREC= ILU
%
% In/Out
MESH_FILENAME= mesh_def.su2
MESH_OUT_FILENAME= mesh_def.su2
MESH_FORMAT= SU2
OUTPUT_FORMAT= PARAVIEW
CONV_FILENAME= history
VOLUME_STRUCTURE_FILENAME= direct
VOLUME_ADJ_STRUCTURE_FILENAME= adjoint
SOLUTION_STRUCTURE_FILENAME= direct.dat
RESTART_STRUCTURE_FILENAME= direct.dat
WRT_SOL_FREQ= 9999
WRT_CON_FREQ= 1
WRT_CON_FREQ_DUALTIME= 1
RESTART_SOL= NO

